CemigDFeeders/AMN06/AMN06ChavesMT.dss
new line.CTR108879 bus1=BMT151234459.1.2.3,bus2=BMT157529779.1.2.3,Phases=3,LineCode=tieSwitch,Length=0.001,Units=km,switch=T !numEQ 82731
new line.CTR108921 bus1=BMT98439700.3,bus2=BMT98440638.3,Phases=1,LineCode=tieSwitch1,Length=0.001,Units=km,switch=T !numEQ 82734
new line.CTR108977 bus1=BMT98435206.3,bus2=BMT163189312.3,Phases=1,LineCode=tieSwitch1,Length=0.001,Units=km,switch=T !numEQ 82738
new line.CTR109523 bus1=BMT98423971.1.2.3,bus2=BMT168102036.1.2.3,Phases=3,LineCode=tieSwitch,Length=0.001,Units=km,switch=T !numEQ 82538
new line.CTR109677 bus1=BMT156060094.3,bus2=BMT170169355.3,Phases=1,LineCode=tieSwitch1,Length=0.001,Units=km,switch=T !numEQ 82678
new line.CTR109887 bus1=BMT98435311.3,bus2=BMT98437439.3,Phases=1,LineCode=tieSwitch1,Length=0.001,Units=km,switch=T !numEQ 209061
new line.CTR109985 bus1=BMT151233048.1.2.3,bus2=BMT151236545.1.2.3,Phases=3,LineCode=tieSwitch,Length=0.001,Units=km,switch=T !numEQ 83111
new line.CTR110034 bus1=BMT98425707.1.2.3,bus2=BMT163141797.1.2.3,Phases=3,LineCode=tieSwitch,Length=0.001,Units=km,switch=T !numEQ 83114
new line.CTR110104 bus1=BMT98435829.3,bus2=BMT162753460.3,Phases=1,LineCode=tieSwitch1,Length=0.001,Units=km,switch=T !numEQ 83113
new line.CTR122067 bus1=BMT164412754.1.2.3,bus2=BMT164721152.1.2.3,Phases=3,LineCode=tieSwitch,Length=0.001,Units=km,switch=T !numEQ 93526
new line.CTR122459 bus1=BMT98434170.1,bus2=BMT98434520.1,Phases=1,LineCode=tieSwitch1,Length=0.001,Units=km,switch=T !numEQ 91995
new line.CTR170157 bus1=BMT98440442.3,bus2=BMT98440533.3,Phases=1,LineCode=tieSwitch1,Length=0.001,Units=km,switch=T !numEQ 113472
new line.CTR184045 bus1=BMT98425784.1,bus2=BMT158589927.1,Phases=1,LineCode=tieSwitch1,Length=0.001,Units=km,switch=T !numEQ 82741
new line.CTR221355 bus1=BMT98425910.1,bus2=BMT134540282.1,Phases=1,LineCode=tieSwitch1,Length=0.001,Units=km,switch=T !numEQ 80055
new line.CTR222062 bus1=BMT98435087.3,bus2=BMT160790013.3,Phases=1,LineCode=tieSwitch1,Length=0.001,Units=km,switch=T !numEQ 82415
new line.CTR292076 bus1=BMT98425889.3,bus2=BMT98434996.3,Phases=1,LineCode=tieSwitch1,Length=0.001,Units=km,switch=T !numEQ 83310
new line.CTR292104 bus1=BMT148401800.1.2.3,bus2=BMT98424356.1.2.3,Phases=3,LineCode=tieSwitch,Length=0.001,Units=km,switch=T !numEQ 83313
open line.CTR292104 term=1
new line.CTR292384 bus1=BMT98433582.2,bus2=BMT172267160.2,Phases=1,LineCode=tieSwitch1,Length=0.001,Units=km,switch=T !numEQ 83209
new line.CTR292489 bus1=BMT98424482.1.2.3,bus2=BMT164150239.1.2.3,Phases=3,LineCode=tieSwitch,Length=0.001,Units=km,switch=T !numEQ 83236
new line.CTR292580 bus1=BMT98424153.1.2.3,bus2=BMT164088335.1.2.3,Phases=3,LineCode=tieSwitch,Length=0.001,Units=km,switch=T !numEQ 83171
new line.CTR292608 bus1=BMT98425574.1.2.3,bus2=BMT120263488.1.2.3,Phases=3,LineCode=tieSwitch,Length=0.001,Units=km,switch=T !numEQ 83174
new line.CTR293910 bus1=BMT98431363.2,bus2=BMT159915840.2,Phases=1,LineCode=tieSwitch1,Length=0.001,Units=km,switch=T !numEQ 83580
new line.CTR294638 bus1=BMT98435822.3,bus2=BMT98436564.3,Phases=1,LineCode=tieSwitch1,Length=0.001,Units=km,switch=T !numEQ 83340
new line.CTR294764 bus1=BMT171325278.1.2.3,bus2=BMT151870736.1.2.3,Phases=3,LineCode=tieSwitch,Length=0.001,Units=km,switch=T !numEQ 82606
new line.CTR295282 bus1=BMT98425637.1.2.3,bus2=BMT157073439.1.2.3,Phases=3,LineCode=tieSwitch,Length=0.001,Units=km,switch=T !numEQ 84010
new line.CTR295296 bus1=BMT98438881.1.2.3,bus2=BMT98438895.1.2.3,Phases=3,LineCode=tieSwitch,Length=0.001,Units=km,switch=T !numEQ 84011
new line.CTR295408 bus1=BMT167176937.1.2.3,bus2=BMT167298368.1.2.3,Phases=3,LineCode=tieSwitch,Length=0.001,Units=km,switch=T !numEQ 83894
new line.CTR295520 bus1=BMT98423719.1.2.3,bus2=BMT160426509.1.2.3,Phases=3,LineCode=tieSwitch,Length=0.001,Units=km,switch=T !numEQ 83910
new line.CTR333824 bus1=BMT153010309.1.2.3,bus2=BMT172348441.1.2.3,Phases=3,LineCode=tieSwitch,Length=0.001,Units=km,switch=T !numEQ 82040
new line.CTR334006 bus1=BMT98425147.1.2.3,bus2=BMT98425196.1.2.3,Phases=3,LineCode=tieSwitch,Length=0.001,Units=km,switch=T !numEQ 82000
new line.CTR336715 bus1=BMT98436655.3,bus2=BMT166855327.3,Phases=1,LineCode=tieSwitch1,Length=0.001,Units=km,switch=T !numEQ 133327
new line.CTR336729 bus1=BMT98436676.3,bus2=BMT110966977.3,Phases=1,LineCode=tieSwitch1,Length=0.001,Units=km,switch=T !numEQ 133328
new line.CTR368600 bus1=BMT98440729.1,bus2=BMT98440792.1,Phases=1,LineCode=tieSwitch1,Length=0.001,Units=km,switch=T !numEQ 82279
new line.CTR371288 bus1=BMT98424748.1.2.3,bus2=BMT172126381.1.2.3,Phases=3,LineCode=tieSwitch,Length=0.001,Units=km,switch=T !numEQ 91359
new line.CTR444592 bus1=BMT98435101.3,bus2=BMT166378477.3,Phases=1,LineCode=tieSwitch1,Length=0.001,Units=km,switch=T !numEQ 82737
new line.CTR446104 bus1=BMT98426155.3,bus2=BMT98433463.3,Phases=1,LineCode=tieSwitch1,Length=0.001,Units=km,switch=T !numEQ 164247
new line.CTR483477 bus1=BMT98433211.2,bus2=BMT98433218.2,Phases=1,LineCode=tieSwitch1,Length=0.001,Units=km,switch=T !numEQ 186771
new line.CTR485864 bus1=BMT98425322.2,bus2=BMT153368878.2,Phases=1,LineCode=tieSwitch1,Length=0.001,Units=km,switch=T !numEQ 196096
new line.CTR487418 bus1=BMT98432259.1,bus2=BMT151841302.1,Phases=1,LineCode=tieSwitch1,Length=0.001,Units=km,switch=T !numEQ 83166
new line.CTR534227 bus1=BMT98439994.3,bus2=BMT98440092.3,Phases=1,LineCode=tieSwitch1,Length=0.001,Units=km,switch=T !numEQ 83216
new line.CTR675179 bus1=BMT98425294.1.2.3,bus2=BMT152495571.1.2.3,Phases=3,LineCode=tieSwitch,Length=0.001,Units=km,switch=T !numEQ 196095
new line.CTR676957 bus1=BMT98438083.2,bus2=BMT98438125.2,Phases=1,LineCode=tieSwitch1,Length=0.001,Units=km,switch=T !numEQ 199178
new line.CTR677076 bus1=BMT98440596.3,bus2=BMT98440610.3,Phases=1,LineCode=tieSwitch1,Length=0.001,Units=km,switch=T !numEQ 203716
new line.CTR680107 bus1=BMT98431251.3,bus2=BMT98431314.3,Phases=1,LineCode=tieSwitch1,Length=0.001,Units=km,switch=T !numEQ 203569
new line.CTR734259 bus1=BMT172756801.1.2.3,bus2=BMT172842470.1.2.3,Phases=3,LineCode=tieSwitch,Length=0.001,Units=km,switch=T !numEQ 219653
new line.CTR735176 bus1=BMT98434779.1,bus2=BMT98434968.1,Phases=1,LineCode=tieSwitch1,Length=0.001,Units=km,switch=T !numEQ 224372
new line.CTR848514 bus1=BMT149464121.1.2.3,bus2=BMT157070455.1.2.3,Phases=3,LineCode=tieSwitch,Length=0.001,Units=km,switch=T !numEQ 303883
new line.CTR862007 bus1=BMT153289812.1.2.3,bus2=BMT153290406.1.2.3,Phases=3,LineCode=tieSwitch,Length=0.001,Units=km,switch=T !numEQ 233425
new line.CTR862331 bus1=BMT153395397.1.2.3,bus2=BMT155858006.1.2.3,Phases=3,LineCode=tieSwitch,Length=0.001,Units=km,switch=T !numEQ 237773
new line.CTR134779 bus1=BMT98435178.3,bus2=BMT98435199.3,Phases=1,LineCode=tieSwitch1,Length=0.001,Units=km,switch=T !numEQ 83312
new line.CTR164130 bus1=BMT98426281.3,bus2=BMT98433302.3,Phases=1,LineCode=tieSwitch1,Length=0.001,Units=km,switch=T !numEQ 127312
new line.CTR164179 bus1=BMT98434828.1,bus2=BMT98434954.1,Phases=1,LineCode=tieSwitch1,Length=0.001,Units=km,switch=T !numEQ 91250
new line.CTR192067 bus1=BMT98437054.3,bus2=BMT98437411.3,Phases=1,LineCode=tieSwitch1,Length=0.001,Units=km,switch=T !numEQ 166150
new line.CTR251273 bus1=BMT98426386.3,bus2=BMT98431118.3,Phases=1,LineCode=tieSwitch1,Length=0.001,Units=km,switch=T !numEQ 186401
new line.CTR30731 bus1=BMT98426106.2,bus2=BMT172266194.2,Phases=1,LineCode=tieSwitch1,Length=0.001,Units=km,switch=T !numEQ 83164
new line.CTR309408 bus1=BMT156056185.1.2.3,bus2=BMT157004109.1.2.3,Phases=3,LineCode=tieSwitch,Length=0.001,Units=km,switch=T !numEQ 245202
new line.CTR342287 bus1=BMT98425791.1.2.3,bus2=BMT171145457.1.2.3,Phases=3,LineCode=tieSwitch,Length=0.001,Units=km,switch=T !numEQ 82721
new line.CTR342301 bus1=BMT98425812.2,bus2=BMT98438055.2,Phases=1,LineCode=tieSwitch1,Length=0.001,Units=km,switch=T !numEQ 80054
new line.CTR378316 bus1=BMT98426351.3,bus2=BMT159173053.3,Phases=1,LineCode=tieSwitch1,Length=0.001,Units=km,switch=T !numEQ 83800
new line.CTR378365 bus1=BMT98437446.3,bus2=BMT98437509.3,Phases=1,LineCode=tieSwitch1,Length=0.001,Units=km,switch=T !numEQ 83819
new line.CTR378512 bus1=BMT154580249.1.2.3,bus2=BMT168102027.1.2.3,Phases=3,LineCode=tieSwitch,Length=0.001,Units=km,switch=T !numEQ 233454
open line.CTR378512 term=1
new line.CTR379408 bus1=BMT98439798.3,bus2=BMT149896725.3,Phases=1,LineCode=tieSwitch1,Length=0.001,Units=km,switch=T !numEQ 83359
new line.CTR379415 bus1=BMT98425595.1.2.3,bus2=BMT158328407.1.2.3,Phases=3,LineCode=tieSwitch,Length=0.001,Units=km,switch=T !numEQ 83360
new line.CTR380171 bus1=BMT98435325.3,bus2=BMT169628561.3,Phases=1,LineCode=tieSwitch1,Length=0.001,Units=km,switch=T !numEQ 83710
new line.CTR380388 bus1=BMT98435360.3,bus2=BMT98436921.3,Phases=1,LineCode=tieSwitch1,Length=0.001,Units=km,switch=T !numEQ 83818
new line.CTR380486 bus1=BMT98433603.2,bus2=BMT98433631.2,Phases=1,LineCode=tieSwitch1,Length=0.001,Units=km,switch=T !numEQ 83208
new line.CTR380948 bus1=BMT98439336.1.2.3,bus2=BMT172042728.1.2.3,Phases=3,LineCode=tieSwitch,Length=0.001,Units=km,switch=T !numEQ 83162
new line.CTR380976 bus1=BMT98425854.2,bus2=BMT160021674.2,Phases=1,LineCode=tieSwitch1,Length=0.001,Units=km,switch=T !numEQ 113550
new line.CTR381004 bus1=BMT98425693.2,bus2=BMT98438853.2,Phases=1,LineCode=tieSwitch1,Length=0.001,Units=km,switch=T !numEQ 83175
new line.CTR381326 bus1=BMT98425420.1.2.3,bus2=BMT98425476.1.2.3,Phases=3,LineCode=tieSwitch,Length=0.001,Units=km,switch=T !numEQ 83314
new line.CTR381389 bus1=BMT98423852.1.2.3,bus2=BMT151233958.1.2.3,Phases=3,LineCode=tieSwitch,Length=0.001,Units=km,switch=T !numEQ 82535
new line.CTR381809 bus1=BMT98439378.1.2.3,bus2=BMT172766585.1.2.3,Phases=3,LineCode=tieSwitch,Length=0.001,Units=km,switch=T !numEQ 82709
new line.CTR381844 bus1=BMT98426379.1,bus2=BMT98431146.1,Phases=1,LineCode=tieSwitch1,Length=0.001,Units=km,switch=T !numEQ 82726
new line.CTR381865 bus1=BMT157057548.1.2.3,bus2=BMT157057551.1.2.3,Phases=3,LineCode=tieSwitch,Length=0.001,Units=km,switch=T !numEQ 82733
new line.CTR381914 bus1=BMT98423943.1.2.3,bus2=BMT168058279.1.2.3,Phases=3,LineCode=tieSwitch,Length=0.001,Units=km,switch=T !numEQ 82746
new line.CTR382474 bus1=BMT157057554.1.2.3,bus2=BMT6057011.1.2.3,Phases=3,LineCode=tieSwitch,Length=0.001,Units=km,switch=T !numEQ 82141
new line.CTR382488 bus1=BMT98424391.1.2.3,bus2=BMT155711557.1.2.3,Phases=3,LineCode=tieSwitch,Length=0.001,Units=km,switch=T !numEQ 82146
new line.CTR466292 bus1=BMT98441478.1,bus2=BMT98441499.1,Phases=1,LineCode=tieSwitch1,Length=0.001,Units=km,switch=T !numEQ 167326
new line.CTR466299 bus1=BMT98440813.1,bus2=BMT98440834.1,Phases=1,LineCode=tieSwitch1,Length=0.001,Units=km,switch=T !numEQ 167325
new line.CTR466306 bus1=BMT98441366.1,bus2=BMT98441555.1,Phases=1,LineCode=tieSwitch1,Length=0.001,Units=km,switch=T !numEQ 167385
new line.CTR629924 bus1=BMT98432784.1,bus2=BMT98432987.1,Phases=1,LineCode=tieSwitch1,Length=0.001,Units=km,switch=T !numEQ 53146
new line.CTR682375 bus1=BMT98440645.3,bus2=BMT151095850.3,Phases=1,LineCode=tieSwitch1,Length=0.001,Units=km,switch=T !numEQ 202368
new line.CTR685196 bus1=BMT98424881.1.2.3,bus2=BMT155858419.1.2.3,Phases=3,LineCode=tieSwitch,Length=0.001,Units=km,switch=T !numEQ 205131
new line.CTR685959 bus1=BMT98433008.1,bus2=BMT98433050.1,Phases=1,LineCode=tieSwitch1,Length=0.001,Units=km,switch=T !numEQ 201063
new line.CTR686967 bus1=BMT98436298.3,bus2=BMT98436361.3,Phases=1,LineCode=tieSwitch1,Length=0.001,Units=km,switch=T !numEQ 180749
new line.CTR741532 bus1=BMT98440043.3,bus2=BMT98440050.3,Phases=1,LineCode=tieSwitch1,Length=0.001,Units=km,switch=T !numEQ 223823
new line.CTR742435 bus1=BMT98437901.2,bus2=BMT98437978.2,Phases=1,LineCode=tieSwitch1,Length=0.001,Units=km,switch=T !numEQ 224166
new line.CTR742946 bus1=BMT98437887.2,bus2=BMT155889614.2,Phases=1,LineCode=tieSwitch1,Length=0.001,Units=km,switch=T !numEQ 229583
new line.CTR743100 bus1=BMT98440491.3,bus2=BMT98440505.3,Phases=1,LineCode=tieSwitch1,Length=0.001,Units=km,switch=T !numEQ 229502
new line.CTR743107 bus1=BMT98440876.1,bus2=BMT98440911.1,Phases=1,LineCode=tieSwitch1,Length=0.001,Units=km,switch=T !numEQ 229503
new line.CTR806324 bus1=BMT119296480.3,bus2=BMT164242282.3,Phases=1,LineCode=tieSwitch1,Length=0.001,Units=km,switch=T !numEQ 300629
new line.CTR807815 bus1=BMT120263516.1.2.3,bus2=BMT120266085.1.2.3,Phases=3,LineCode=tieSwitch,Length=0.001,Units=km,switch=T !numEQ 229540
new line.CTR807822 bus1=BMT120266106.1.2.3,bus2=BMT120266365.1.2.3,Phases=3,LineCode=tieSwitch,Length=0.001,Units=km,switch=T !numEQ 229539
new line.CTR849931 bus1=BMT149835362.2,bus2=BMT149835368.2,Phases=1,LineCode=tieSwitch1,Length=0.001,Units=km,switch=T !numEQ 187051
new line.CTR850213 bus1=BMT149896743.3,bus2=BMT171683331.3,Phases=1,LineCode=tieSwitch1,Length=0.001,Units=km,switch=T !numEQ 375193
new line.CTR850486 bus1=BMT149976340.1,bus2=BMT149976364.1,Phases=1,LineCode=tieSwitch1,Length=0.001,Units=km,switch=T !numEQ 186433
new line.CTR850515 bus1=BMT149987337.3,bus2=BMT149987341.3,Phases=1,LineCode=tieSwitch1,Length=0.001,Units=km,switch=T !numEQ 206095
new line.CTR864751 bus1=BMT158553848.1.2.3,bus2=BMT170949818.1.2.3,Phases=3,LineCode=tieSwitch,Length=0.001,Units=km,switch=T !numEQ 383056
new line.CTR865407 bus1=BMT154374946.1.2.3,bus2=BMT169760873.1.2.3,Phases=3,LineCode=tieSwitch,Length=0.001,Units=km,switch=T !numEQ 233423
new line.CTR862354 bus1=BMT153409258.3,bus2=BMT153409265.3,Phases=1,LineCode=tieSwitch1,Length=0.001,Units=km,switch=T !numEQ 233432
new line.CTR862408 bus1=BMT153432514.1,bus2=BMT170865328.1,Phases=1,LineCode=tieSwitch1,Length=0.001,Units=km,switch=T !numEQ 375380
new line.CTR862964 bus1=BMT153610491.2,bus2=BMT165402256.2,Phases=1,LineCode=tieSwitch1,Length=0.001,Units=km,switch=T !numEQ 237963
new line.CTR877767 bus1=BMT158706783.2,bus2=BMT158707142.2,Phases=1,LineCode=tieSwitch1,Length=0.001,Units=km,switch=T !numEQ 241617
new line.CTR9220 bus1=BMT98438237.2,bus2=BMT98438328.2,Phases=1,LineCode=tieSwitch1,Length=0.001,Units=km,switch=T !numEQ 165131
new line.CTRR32584 bus1=BMT151870739.1.2.3,bus2=BMT151217687.1.2.3,Phases=3,LineCode=tieSwitch,Length=0.001,Units=km,switch=T !numEQ 375132
open line.CTRR32584 term=1
new line.CTR878409 bus1=BMT158370590.1,bus2=BMT158370916.1,Phases=1,LineCode=tieSwitch1,Length=0.001,Units=km,switch=T !numEQ 241748
new line.CTR878736 bus1=BMT158501534.1,bus2=BMT158501916.1,Phases=1,LineCode=tieSwitch1,Length=0.001,Units=km,switch=T !numEQ 284083
new line.CTR878842 bus1=BMT158539769.3,bus2=BMT158540566.3,Phases=1,LineCode=tieSwitch1,Length=0.001,Units=km,switch=T !numEQ 238072
new line.CTR879073 bus1=BMT158598124.2,bus2=BMT158598259.2,Phases=1,LineCode=tieSwitch1,Length=0.001,Units=km,switch=T !numEQ 251344
new line.CTR879339 bus1=BMT158684182.2,bus2=BMT158684303.2,Phases=1,LineCode=tieSwitch1,Length=0.001,Units=km,switch=T !numEQ 291718
new line.CTR879536 bus1=BMT158741457.1,bus2=BMT158741461.1,Phases=1,LineCode=tieSwitch1,Length=0.001,Units=km,switch=T !numEQ 244963
new line.CTR907636 bus1=BMT172869425.1.2.3,bus2=BMT172804266.1.2.3,Phases=3,LineCode=tieSwitch,Length=0.001,Units=km,switch=T !numEQ 278261
new line.CTR9451 bus1=BMT98437089.3,bus2=BMT98437334.3,Phases=1,LineCode=tieSwitch1,Length=0.001,Units=km,switch=T !numEQ 165200
new line.CTR9479 bus1=BMT98437075.3,bus2=BMT98437369.3,Phases=1,LineCode=tieSwitch1,Length=0.001,Units=km,switch=T !numEQ 165202
new line.CTRR34299 bus1=BMT155420493.1.2.3,bus2=BMT172573842.1.2.3,Phases=3,LineCode=tieSwitch,Length=0.001,Units=km,switch=T !numEQ 240316
new line.CTR11731397 bus1=BMT2193848348.1.2.3,bus2=BMT2011731283.1.2.3,Phases=3,LineCode=tieSwitch,Length=0.001,Units=km,switch=T !numEQ 
new line.CTR11731473 bus1=BMT2011731474.1.2.3,bus2=BMT2193848348.1.2.3,Phases=3,LineCode=tieSwitch,Length=0.001,Units=km,switch=T !numEQ 
new line.CTR162422 bus1=BMT98441212.1,bus2=BMT98441219.1,Phases=1,LineCode=tieSwitch1,Length=0.001,Units=km,switch=T !numEQ 128527
new line.CTR162450 bus1=BMT98441037.1,bus2=BMT98441205.1,Phases=1,LineCode=tieSwitch1,Length=0.001,Units=km,switch=T !numEQ 128528
new line.CTR204373 bus1=BMT98426274.3,bus2=BMT98433386.3,Phases=1,LineCode=tieSwitch1,Length=0.001,Units=km,switch=T !numEQ 164268
new line.CTR204387 bus1=BMT98426267.2,bus2=BMT98433449.2,Phases=1,LineCode=tieSwitch1,Length=0.001,Units=km,switch=T !numEQ 164267
new line.CTR204821 bus1=BMT98426428.1.2.3,bus2=BMT98430782.1.2.3,Phases=3,LineCode=tieSwitch,Length=0.001,Units=km,switch=T !numEQ 131915
new line.CTR230035 bus1=BMT157413119.1.2.3,bus2=BMT98423782.1.2.3,Phases=3,LineCode=tieSwitch,Length=0.001,Units=km,switch=T !numEQ 53296
new line.CTR303780 bus1=BMT98424230.1.2.3,bus2=BMT148401790.1.2.3,Phases=3,LineCode=tieSwitch,Length=0.001,Units=km,switch=T !numEQ 91330
new line.CTR337926 bus1=BMT98436711.3,bus2=BMT165998015.3,Phases=1,LineCode=tieSwitch1,Length=0.001,Units=km,switch=T !numEQ 135613
new line.CTR339669 bus1=BMT98426064.3,bus2=BMT98434583.3,Phases=1,LineCode=tieSwitch1,Length=0.001,Units=km,switch=T !numEQ 82677
new line.CTR376517 bus1=BMT98426358.1.2.3,bus2=BMT158553847.1.2.3,Phases=3,LineCode=tieSwitch,Length=0.001,Units=km,switch=T !numEQ 83204
new line.CTR449044 bus1=BMT98437586.3,bus2=BMT98437761.3,Phases=1,LineCode=tieSwitch1,Length=0.001,Units=km,switch=T !numEQ 164292
new line.CTR498632 bus1=BMT98441611.2,bus2=BMT98441625.2,Phases=1,LineCode=tieSwitch1,Length=0.001,Units=km,switch=T !numEQ 185255
new line.CTR498730 bus1=BMT98433932.1,bus2=BMT169440331.1,Phases=1,LineCode=tieSwitch1,Length=0.001,Units=km,switch=T !numEQ 91994
new line.CTR549851 bus1=BMT98439000.2,bus2=BMT166165295.2,Phases=1,LineCode=tieSwitch1,Length=0.001,Units=km,switch=T !numEQ 53518
new line.CTR549879 bus1=BMT98424524.1.2.3,bus2=BMT159605147.1.2.3,Phases=3,LineCode=tieSwitch,Length=0.001,Units=km,switch=T !numEQ 53520
new line.CTR549907 bus1=BMT98425546.1.2.3,bus2=BMT98439182.1.2.3,Phases=3,LineCode=tieSwitch,Length=0.001,Units=km,switch=T !numEQ 53049
new line.CTR6035 bus1=BMT98435906.3,bus2=BMT98436431.3,Phases=1,LineCode=tieSwitch1,Length=0.001,Units=km,switch=T !numEQ 195550
new line.CTR650637 bus1=BMT98434359.1,bus2=BMT153432513.1,Phases=1,LineCode=tieSwitch1,Length=0.001,Units=km,switch=T !numEQ 199264
new line.CTR706336 bus1=BMT98440120.3,bus2=BMT170599294.3,Phases=1,LineCode=tieSwitch1,Length=0.001,Units=km,switch=T !numEQ 202374
new line.CTR759949 bus1=BMT98439637.3,bus2=BMT98440673.3,Phases=1,LineCode=tieSwitch1,Length=0.001,Units=km,switch=T !numEQ 282731
new line.CTR810482 bus1=BMT122902544.1,bus2=BMT122906821.1,Phases=1,LineCode=tieSwitch1,Length=0.001,Units=km,switch=T !numEQ 293100
new line.CTR813793 bus1=BMT126085577.1.2.3,bus2=BMT126085584.1.2.3,Phases=3,LineCode=tieSwitch,Length=0.001,Units=km,switch=T !numEQ 196836
new line.CTR816705 bus1=BMT127747426.3,bus2=BMT127747440.3,Phases=1,LineCode=tieSwitch1,Length=0.001,Units=km,switch=T !numEQ 305727
new line.CTR866687 bus1=BMT154735037.1,bus2=BMT168235280.1,Phases=1,LineCode=tieSwitch1,Length=0.001,Units=km,switch=T !numEQ 242095
new line.CTR882270 bus1=BMT159748908.1,bus2=BMT166722496.1,Phases=1,LineCode=tieSwitch1,Length=0.001,Units=km,switch=T !numEQ 248093
new line.CTR9507 bus1=BMT98437124.3,bus2=BMT98437257.3,Phases=1,LineCode=tieSwitch1,Length=0.001,Units=km,switch=T !numEQ 165201
new line.CTR9535 bus1=BMT98437110.3,bus2=BMT169357953.3,Phases=1,LineCode=tieSwitch1,Length=0.001,Units=km,switch=T !numEQ 165199
new line.CTRR35374 bus1=BMT98433855.1,bus2=BMT169524548.1,Phases=1,LineCode=tieSwitch1,Length=0.001,Units=km,switch=T !numEQ 83824
new line.CTR112827 bus1=BMT98423656.1.2.3,bus2=BMT137898854.1.2.3,Phases=3,LineCode=tieSwitch,Length=0.001,Units=km,switch=T !numEQ 233453
new line.CTR113163 bus1=BMT98432644.1,bus2=BMT98432658.1,Phases=1,LineCode=tieSwitch1,Length=0.001,Units=km,switch=T !numEQ 83806
new line.CTR113247 bus1=BMT98440722.1,bus2=BMT163959678.1,Phases=1,LineCode=tieSwitch1,Length=0.001,Units=km,switch=T !numEQ 83100
new line.CTR186670 bus1=BMT98425756.3,bus2=BMT166715816.3,Phases=1,LineCode=tieSwitch1,Length=0.001,Units=km,switch=T !numEQ 82413
new line.CTR187069 bus1=BMT98433960.1,bus2=BMT98434051.1,Phases=1,LineCode=tieSwitch1,Length=0.001,Units=km,switch=T !numEQ 91997
new line.CTR328462 bus1=BMT98439448.1.2.3,bus2=BMT172020587.1.2.3,Phases=3,LineCode=tieSwitch,Length=0.001,Units=km,switch=T !numEQ 125752
new line.CTR365660 bus1=BMT164088337.1.2.3,bus2=BMT98425490.1.2.3,Phases=3,LineCode=tieSwitch,Length=0.001,Units=km,switch=T !numEQ 53043
open line.CTR365660 term=1
new line.CTR366850 bus1=BMT98425777.2,bus2=BMT98438153.2,Phases=1,LineCode=tieSwitch1,Length=0.001,Units=km,switch=T !numEQ 82037
new line.CTR437851 bus1=BMT98424825.1.2.3,bus2=BMT172238328.1.2.3,Phases=3,LineCode=tieSwitch,Length=0.001,Units=km,switch=T !numEQ 60797
new line.CTR468756 bus1=BMT98435031.3,bus2=BMT168191447.3,Phases=1,LineCode=tieSwitch1,Length=0.001,Units=km,switch=T !numEQ 167438
new line.CTR468763 bus1=BMT98435066.3,bus2=BMT98437810.3,Phases=1,LineCode=tieSwitch1,Length=0.001,Units=km,switch=T !numEQ 167440
new line.CTR471675 bus1=BMT98424286.1.2.3,bus2=BMT167626057.1.2.3,Phases=3,LineCode=tieSwitch,Length=0.001,Units=km,switch=T !numEQ 185180
new line.CTR473201 bus1=BMT98435171.3,bus2=BMT98437572.3,Phases=1,LineCode=tieSwitch1,Length=0.001,Units=km,switch=T !numEQ 164291
new line.CTR474643 bus1=BMT157639552.1.2.3,bus2=BMT98424923.1.2.3,Phases=3,LineCode=tieSwitch,Length=0.001,Units=km,switch=T !numEQ 185203
open line.CTR474643 term=1
new line.CTR624198 bus1=BMT98426204.1.2.3,bus2=BMT98426246.1.2.3,Phases=3,LineCode=tieSwitch,Length=0.001,Units=km,switch=T !numEQ 82307
new line.CTR673583 bus1=BMT98435843.3,bus2=BMT98436445.3,Phases=1,LineCode=tieSwitch1,Length=0.001,Units=km,switch=T !numEQ 199668
new line.CTR730003 bus1=BMT138115952.1,bus2=BMT157070179.1,Phases=1,LineCode=tieSwitch1,Length=0.001,Units=km,switch=T !numEQ 219397
new line.CTR875801 bus1=BMT157439748.1.2.3,bus2=BMT158706860.1.2.3,Phases=3,LineCode=tieSwitch,Length=0.001,Units=km,switch=T !numEQ 250233
new line.CTR875802 bus1=BMT157439906.1.2.3,bus2=BMT157785994.1.2.3,Phases=3,LineCode=tieSwitch,Length=0.001,Units=km,switch=T !numEQ 250236
open line.CTR875802 term=1
new line.CTR876259 bus1=BMT157589627.3,bus2=BMT162926571.3,Phases=1,LineCode=tieSwitch1,Length=0.001,Units=km,switch=T !numEQ 240260
new line.CTR876385 bus1=BMT157636520.1.2.3,bus2=BMT157636521.1.2.3,Phases=3,LineCode=tieSwitch,Length=0.001,Units=km,switch=T !numEQ 244839
new line.CTR876386 bus1=BMT157636617.1.2.3,bus2=BMT157639542.1.2.3,Phases=3,LineCode=tieSwitch,Length=0.001,Units=km,switch=T !numEQ 244838
new line.CTR889263 bus1=BMT162753464.3,bus2=BMT162757008.3,Phases=1,LineCode=tieSwitch1,Length=0.001,Units=km,switch=T !numEQ 250317
new line.CTR904346 bus1=BMT168062724.1.2.3,bus2=BMT168062910.1.2.3,Phases=3,LineCode=tieSwitch,Length=0.001,Units=km,switch=T !numEQ 261880
new line.CTR904550 bus1=BMT168147999.1,bus2=BMT168176932.1,Phases=1,LineCode=tieSwitch1,Length=0.001,Units=km,switch=T !numEQ 260744
new line.CTR904796 bus1=BMT168236971.3,bus2=BMT168237083.3,Phases=1,LineCode=tieSwitch1,Length=0.001,Units=km,switch=T !numEQ 251000
new line.CTR9192 bus1=BMT98438188.2,bus2=BMT98438223.2,Phases=1,LineCode=tieSwitch1,Length=0.001,Units=km,switch=T !numEQ 165130
new line.CTRR25838 bus1=BMT170949723.1.2.3,bus2=BMT170949724.1.2.3,Phases=3,LineCode=tieSwitch,Length=0.001,Units=km,switch=T !numEQ 297749
new line.CTRR26286 bus1=BMT151868277.1.2.3,bus2=BMT171325274.1.2.3,Phases=3,LineCode=tieSwitch,Length=0.001,Units=km,switch=T !numEQ 53737
new line.CTRR2864 bus1=BMT98435003.3,bus2=BMT149098508.3,Phases=1,LineCode=tieSwitch1,Length=0.001,Units=km,switch=T !numEQ 53612
new line.CTR107731 bus1=BMT98440799.1,bus2=BMT167413075.1,Phases=1,LineCode=tieSwitch1,Length=0.001,Units=km,switch=T !numEQ 82276
new line.CTR107913 bus1=BMT98424783.1.2.3,bus2=BMT153010304.1.2.3,Phases=3,LineCode=tieSwitch,Length=0.001,Units=km,switch=T !numEQ 82233
new line.CTR107955 bus1=BMT98433540.2,bus2=BMT98433743.2,Phases=1,LineCode=tieSwitch1,Length=0.001,Units=km,switch=T !numEQ 83180
new line.CTR108214 bus1=BMT155711561.1.2.3,bus2=BMT98424440.1.2.3,Phases=3,LineCode=tieSwitch,Length=0.001,Units=km,switch=T !numEQ 82147
open line.CTR108214 term=1
new line.CTR108291 bus1=BMT98436634.3,bus2=BMT98436893.3,Phases=1,LineCode=tieSwitch1,Length=0.001,Units=km,switch=T !numEQ 140468
new line.CTR121325 bus1=BMT98425518.1.2.3,bus2=BMT172798238.1.2.3,Phases=3,LineCode=tieSwitch,Length=0.001,Units=km,switch=T !numEQ 91181
new line.CTR135605 bus1=BMT98434863.1,bus2=BMT98434891.1,Phases=1,LineCode=tieSwitch1,Length=0.001,Units=km,switch=T !numEQ 91223
new line.CTR180258 bus1=BMT98435346.3,bus2=BMT162203073.3,Phases=1,LineCode=tieSwitch1,Length=0.001,Units=km,switch=T !numEQ 101520
new line.CTR25915 bus1=BMT98425581.1.2.3,bus2=BMT157073434.1.2.3,Phases=3,LineCode=tieSwitch,Length=0.001,Units=km,switch=T !numEQ 82009
new line.CTR350078 bus1=BMT98424146.2,bus2=BMT98439224.2,Phases=1,LineCode=tieSwitch1,Length=0.001,Units=km,switch=T !numEQ 138577
new line.CTR382761 bus1=BMT98426344.1.2.3,bus2=BMT171184462.1.2.3,Phases=3,LineCode=tieSwitch,Length=0.001,Units=km,switch=T !numEQ 82245
new line.CTR382775 bus1=BMT98438475.1,bus2=BMT98438573.1,Phases=1,LineCode=tieSwitch1,Length=0.001,Units=km,switch=T !numEQ 82248
new line.CTR382852 bus1=BMT98439777.3,bus2=BMT158219642.3,Phases=1,LineCode=tieSwitch1,Length=0.001,Units=km,switch=T !numEQ 82068
new line.CTR382866 bus1=BMT98435374.3,bus2=BMT170690932.3,Phases=1,LineCode=tieSwitch1,Length=0.001,Units=km,switch=T !numEQ 82277
new line.CTR382936 bus1=BMT98423621.1.2.3,bus2=BMT164412753.1.2.3,Phases=3,LineCode=tieSwitch,Length=0.001,Units=km,switch=T !numEQ 82301
new line.CTR383181 bus1=BMT98438622.1,bus2=BMT98438839.1,Phases=1,LineCode=tieSwitch1,Length=0.001,Units=km,switch=T !numEQ 82386
new line.CTR456534 bus1=BMT98434254.1,bus2=BMT98434492.1,Phases=1,LineCode=tieSwitch1,Length=0.001,Units=km,switch=T !numEQ 167658
new line.CTR457276 bus1=BMT98438160.2,bus2=BMT98438370.2,Phases=1,LineCode=tieSwitch1,Length=0.001,Units=km,switch=T !numEQ 165206
new line.CTR457822 bus1=BMT98426211.3,bus2=BMT98426218.3,Phases=1,LineCode=tieSwitch1,Length=0.001,Units=km,switch=T !numEQ 164248
new line.CTR458025 bus1=BMT98433883.1,bus2=BMT165425666.1,Phases=1,LineCode=tieSwitch1,Length=0.001,Units=km,switch=T !numEQ 165207
new line.CTR491254 bus1=BMT98439014.2,bus2=BMT98439112.2,Phases=1,LineCode=tieSwitch1,Length=0.001,Units=km,switch=T !numEQ 136108
new line.CTR491576 bus1=BMT98434058.1,bus2=BMT98434100.1,Phases=1,LineCode=tieSwitch1,Length=0.001,Units=km,switch=T !numEQ 197343
new line.CTR491583 bus1=BMT98432371.1,bus2=BMT98432378.1,Phases=1,LineCode=tieSwitch1,Length=0.001,Units=km,switch=T !numEQ 197344
new line.CTR491590 bus1=BMT98435787.3,bus2=BMT128634886.3,Phases=1,LineCode=tieSwitch1,Length=0.001,Units=km,switch=T !numEQ 197345
new line.CTR494236 bus1=BMT98424048.1.2.3,bus2=BMT98424069.1.2.3,Phases=3,LineCode=tieSwitch,Length=0.001,Units=km,switch=T !numEQ 190135
new line.CTR494425 bus1=BMT98436214.3,bus2=BMT98436270.3,Phases=1,LineCode=tieSwitch1,Length=0.001,Units=km,switch=T !numEQ 187195
new line.CTR494439 bus1=BMT98436312.3,bus2=BMT98436333.3,Phases=1,LineCode=tieSwitch1,Length=0.001,Units=km,switch=T !numEQ 187210
new line.CTR494446 bus1=BMT98436284.3,bus2=BMT98436389.3,Phases=1,LineCode=tieSwitch1,Length=0.001,Units=km,switch=T !numEQ 190087
new line.CTR53943 bus1=BMT98425952.1.2.3,bus2=BMT158790685.1.2.3,Phases=3,LineCode=tieSwitch,Length=0.001,Units=km,switch=T !numEQ 82736
new line.CTR688381 bus1=BMT156261155.1,bus2=BMT156261156.1,Phases=1,LineCode=tieSwitch1,Length=0.001,Units=km,switch=T !numEQ 216090
new line.CTR689837 bus1=BMT98434023.1,bus2=BMT98434037.1,Phases=1,LineCode=tieSwitch1,Length=0.001,Units=km,switch=T !numEQ 202372
new line.CTR691468 bus1=BMT98438657.1,bus2=BMT98438790.1,Phases=1,LineCode=tieSwitch1,Length=0.001,Units=km,switch=T !numEQ 216438
new line.CTR692532 bus1=BMT98432406.1,bus2=BMT98432441.1,Phases=1,LineCode=tieSwitch1,Length=0.001,Units=km,switch=T !numEQ 203721
new line.CTR694947 bus1=BMT98424461.1.2.3,bus2=BMT150196570.1.2.3,Phases=3,LineCode=tieSwitch,Length=0.001,Units=km,switch=T !numEQ 217240
new line.CTR7470 bus1=BMT98436690.3,bus2=BMT98436802.3,Phases=1,LineCode=tieSwitch1,Length=0.001,Units=km,switch=T !numEQ 200325
new line.CTR749246 bus1=BMT122646743.1.2.3,bus2=BMT151868323.1.2.3,Phases=3,LineCode=tieSwitch,Length=0.001,Units=km,switch=T !numEQ 284097
new line.CTR750009 bus1=BMT98432224.1,bus2=BMT98433078.1,Phases=1,LineCode=tieSwitch1,Length=0.001,Units=km,switch=T !numEQ 224359
new line.CTR750065 bus1=BMT98435486.3,bus2=BMT170169367.3,Phases=1,LineCode=tieSwitch1,Length=0.001,Units=km,switch=T !numEQ 282795
new line.CTR751682 bus1=BMT98434597.3,bus2=BMT98434632.3,Phases=1,LineCode=tieSwitch1,Length=0.001,Units=km,switch=T !numEQ 282799
new line.CTR854510 bus1=BMT152495573.1.2.3,bus2=BMT151854243.1.2.3,Phases=3,LineCode=tieSwitch,Length=0.001,Units=km,switch=T !numEQ 375131
new line.CTR854544 bus1=BMT151220319.1.2.3,bus2=BMT156055824.1.2.3,Phases=3,LineCode=tieSwitch,Length=0.001,Units=km,switch=T !numEQ 282370
new line.CTRR37953 bus1=BMT163958840.1.2.3,bus2=BMT164067331.1.2.3,Phases=3,LineCode=tieSwitch,Length=0.001,Units=km,switch=T !numEQ 260214
new line.CTRR38156 bus1=BMT164248430.1.2.3,bus2=BMT164711718.1.2.3,Phases=3,LineCode=tieSwitch,Length=0.001,Units=km,switch=T !numEQ 261023
new line.CTRR38228 bus1=BMT164413053.1.2.3,bus2=BMT164721311.1.2.3,Phases=3,LineCode=tieSwitch,Length=0.001,Units=km,switch=T !numEQ 261022
new line.CTR111273 bus1=BMT98424741.1.2.3,bus2=BMT172869419.1.2.3,Phases=3,LineCode=tieSwitch,Length=0.001,Units=km,switch=T !numEQ 83563
new line.CTR111609 bus1=BMT157243411.1.2.3,bus2=BMT157243467.1.2.3,Phases=3,LineCode=tieSwitch,Length=0.001,Units=km,switch=T !numEQ 83402
new line.CTR151089 bus1=BMT158551735.1.2.3,bus2=BMT158599834.1.2.3,Phases=3,LineCode=tieSwitch,Length=0.001,Units=km,switch=T !numEQ 82031
new line.CTR151117 bus1=BMT98439560.1,bus2=BMT98440701.1,Phases=1,LineCode=tieSwitch1,Length=0.001,Units=km,switch=T !numEQ 82033
new line.CTR183107 bus1=BMT98441597.2,bus2=BMT98441604.2,Phases=1,LineCode=tieSwitch1,Length=0.001,Units=km,switch=T !numEQ 83354
new line.CTR195672 bus1=BMT98436683.3,bus2=BMT98436830.3,Phases=1,LineCode=tieSwitch1,Length=0.001,Units=km,switch=T !numEQ 143063
new line.CTR2164 bus1=BMT98432273.1,bus2=BMT98432539.1,Phases=1,LineCode=tieSwitch1,Length=0.001,Units=km,switch=T !numEQ 202649
new line.CTR321791 bus1=BMT98440407.3,bus2=BMT98440414.3,Phases=1,LineCode=tieSwitch1,Length=0.001,Units=km,switch=T !numEQ 113471
new line.CTR352920 bus1=BMT98440295.3,bus2=BMT98440575.3,Phases=1,LineCode=tieSwitch1,Length=0.001,Units=km,switch=T !numEQ 113501
new line.CTR420113 bus1=BMT98439644.3,bus2=BMT168236970.3,Phases=1,LineCode=tieSwitch1,Length=0.001,Units=km,switch=T !numEQ 53645
new line.CTR460650 bus1=BMT98437628.3,bus2=BMT168102664.3,Phases=1,LineCode=tieSwitch1,Length=0.001,Units=km,switch=T !numEQ 164293
new line.CTR511435 bus1=BMT98438265.2,bus2=BMT98438300.2,Phases=1,LineCode=tieSwitch1,Length=0.001,Units=km,switch=T !numEQ 165132
new line.CTR562514 bus1=BMT98426316.3,bus2=BMT162863958.3,Phases=1,LineCode=tieSwitch1,Length=0.001,Units=km,switch=T !numEQ 131159
new line.CTR614020 bus1=BMT98439756.3,bus2=BMT98439770.3,Phases=1,LineCode=tieSwitch1,Length=0.001,Units=km,switch=T !numEQ 83363
new line.CTR615420 bus1=BMT98425133.1.2.3,bus2=BMT159572234.1.2.3,Phases=3,LineCode=tieSwitch,Length=0.001,Units=km,switch=T !numEQ 83822
new line.CTR664658 bus1=BMT98441058.1,bus2=BMT98441177.1,Phases=1,LineCode=tieSwitch1,Length=0.001,Units=km,switch=T !numEQ 128529
new line.CTR664686 bus1=BMT98441107.1,bus2=BMT98441135.1,Phases=1,LineCode=tieSwitch1,Length=0.001,Units=km,switch=T !numEQ 128530
new line.CTR666618 bus1=BMT98425896.1.2.3,bus2=BMT159768704.1.2.3,Phases=3,LineCode=tieSwitch,Length=0.001,Units=km,switch=T !numEQ 82735
new line.CTR716857 bus1=BMT98425917.3,bus2=BMT98434674.3,Phases=1,LineCode=tieSwitch1,Length=0.001,Units=km,switch=T !numEQ 217265
new line.CTR7197 bus1=BMT98435871.3,bus2=BMT98435878.3,Phases=1,LineCode=tieSwitch1,Length=0.001,Units=km,switch=T !numEQ 83843
new line.CTR719832 bus1=BMT98439574.3,bus2=BMT156615467.3,Phases=1,LineCode=tieSwitch1,Length=0.001,Units=km,switch=T !numEQ 214876
new line.CTR870932 bus1=BMT155964143.1.2.3,bus2=BMT157639606.1.2.3,Phases=3,LineCode=tieSwitch,Length=0.001,Units=km,switch=T !numEQ 233424
new line.CTR871188 bus1=BMT156055828.1.2.3,bus2=BMT157004181.1.2.3,Phases=3,LineCode=tieSwitch,Length=0.001,Units=km,switch=T !numEQ 237730
new line.CTR897961 bus1=BMT165964417.1,bus2=BMT165965366.1,Phases=1,LineCode=tieSwitch1,Length=0.001,Units=km,switch=T !numEQ 250187
new line.CTR910909 bus1=BMT170690938.3,bus2=BMT170690863.3,Phases=1,LineCode=tieSwitch1,Length=0.001,Units=km,switch=T !numEQ 261938
new line.CTR98449 bus1=BMT98432931.1,bus2=BMT98432959.1,Phases=1,LineCode=tieSwitch1,Length=0.001,Units=km,switch=T !numEQ 143065
new line.CTR309793 bus1=BMT98439812.3,bus2=BMT150929496.3,Phases=1,LineCode=tieSwitch1,Length=0.001,Units=km,switch=T !numEQ 83364
new line.CTR311130 bus1=BMT98432665.1,bus2=BMT98432679.1,Phases=1,LineCode=tieSwitch1,Length=0.001,Units=km,switch=T !numEQ 97539
new line.CTR311424 bus1=BMT98424559.1.2.3,bus2=BMT172756799.1.2.3,Phases=3,LineCode=tieSwitch,Length=0.001,Units=km,switch=T !numEQ 101144
new line.CTR311858 bus1=BMT98435458.3,bus2=BMT98435738.3,Phases=1,LineCode=tieSwitch1,Length=0.001,Units=km,switch=T !numEQ 83172
new line.CTR416788 bus1=BMT98425700.1,bus2=BMT168147984.1,Phases=1,LineCode=tieSwitch1,Length=0.001,Units=km,switch=T !numEQ 82275
new line.CTR453167 bus1=BMT148507088.1.2.3,bus2=BMT148561349.1.2.3,Phases=3,LineCode=tieSwitch,Length=0.001,Units=km,switch=T !numEQ 163930
new line.CTR504666 bus1=BMT98441436.1,bus2=BMT98441471.1,Phases=1,LineCode=tieSwitch1,Length=0.001,Units=km,switch=T !numEQ 184797
new line.CTR609785 bus1=BMT98425735.1,bus2=BMT161504401.1,Phases=1,LineCode=tieSwitch1,Length=0.001,Units=km,switch=T !numEQ 82306
new line.CTR611122 bus1=BMT98424328.1.2.3,bus2=BMT159257295.1.2.3,Phases=3,LineCode=tieSwitch,Length=0.001,Units=km,switch=T !numEQ 82724
new line.CTR659142 bus1=BMT98436011.3,bus2=BMT98436123.3,Phases=1,LineCode=tieSwitch1,Length=0.001,Units=km,switch=T !numEQ 131569
new line.CTR659170 bus1=BMT98435983.3,bus2=BMT98436193.3,Phases=1,LineCode=tieSwitch1,Length=0.001,Units=km,switch=T !numEQ 131570
new line.CTR710368 bus1=BMT153357531.1,bus2=BMT153357557.1,Phases=1,LineCode=tieSwitch1,Length=0.001,Units=km,switch=T !numEQ 185194
new line.CTR713679 bus1=BMT98435542.3,bus2=BMT168074279.3,Phases=1,LineCode=tieSwitch1,Length=0.001,Units=km,switch=T !numEQ 215079
new line.CTR713931 bus1=BMT98435248.3,bus2=BMT98437558.3,Phases=1,LineCode=tieSwitch1,Length=0.001,Units=km,switch=T !numEQ 217488
new line.CTR714099 bus1=BMT98435024.3,bus2=BMT168306656.3,Phases=1,LineCode=tieSwitch1,Length=0.001,Units=km,switch=T !numEQ 217261
new line.CTR715394 bus1=BMT98435591.3,bus2=BMT98435668.3,Phases=1,LineCode=tieSwitch1,Length=0.001,Units=km,switch=T !numEQ 217474
new line.CTR837943 bus1=BMT138096730.1.2.3,bus2=BMT157071859.1.2.3,Phases=3,LineCode=tieSwitch,Length=0.001,Units=km,switch=T !numEQ 219775
new line.CTR837950 bus1=BMT138105886.1.2.3,bus2=BMT157073454.1.2.3,Phases=3,LineCode=tieSwitch,Length=0.001,Units=km,switch=T !numEQ 219796
new line.CTR858515 bus1=BMT152390019.1,bus2=BMT152390022.1,Phases=1,LineCode=tieSwitch1,Length=0.001,Units=km,switch=T !numEQ 205092
new line.CTR887446 bus1=BMT161897297.1,bus2=BMT166028741.1,Phases=1,LineCode=tieSwitch1,Length=0.001,Units=km,switch=T !numEQ 260387
new line.CTR889047 bus1=BMT162663730.1,bus2=BMT162663860.1,Phases=1,LineCode=tieSwitch1,Length=0.001,Units=km,switch=T !numEQ 250611
new line.CTR901609 bus1=BMT167158882.1.2.3,bus2=BMT167158883.1.2.3,Phases=3,LineCode=tieSwitch,Length=0.001,Units=km,switch=T !numEQ 375216
new line.CTRR42294 bus1=BMT171184537.1,bus2=BMT171184538.1,Phases=1,LineCode=tieSwitch1,Length=0.001,Units=km,switch=T !numEQ 240268
new line.CTR188336 bus1=BMT98425553.1.2.3,bus2=BMT157071136.1.2.3,Phases=3,LineCode=tieSwitch,Length=0.001,Units=km,switch=T !numEQ 91301
new line.CTR290529 bus1=BMT162163007.1,bus2=BMT165938876.1,Phases=1,LineCode=tieSwitch1,Length=0.001,Units=km,switch=T !numEQ 82238
new line.CTR290543 bus1=BMT171184469.1,bus2=BMT171184536.1,Phases=1,LineCode=tieSwitch1,Length=0.001,Units=km,switch=T !numEQ 82240
new line.CTR290571 bus1=BMT98432252.1,bus2=BMT162663709.1,Phases=1,LineCode=tieSwitch1,Length=0.001,Units=km,switch=T !numEQ 82244
new line.CTR290592 bus1=BMT98437523.3,bus2=BMT98437544.3,Phases=1,LineCode=tieSwitch1,Length=0.001,Units=km,switch=T !numEQ 209062
new line.CTR290662 bus1=BMT98424965.1.2.3,bus2=BMT151631086.1.2.3,Phases=3,LineCode=tieSwitch,Length=0.001,Units=km,switch=T !numEQ 82256
new line.CTR290984 bus1=BMT98426337.1,bus2=BMT98433260.1,Phases=1,LineCode=tieSwitch1,Length=0.001,Units=km,switch=T !numEQ 131362
new line.CTR291537 bus1=BMT150459553.1.2.3,bus2=BMT163566988.1.2.3,Phases=3,LineCode=tieSwitch,Length=0.001,Units=km,switch=T !numEQ 82710
new line.CTR325074 bus1=BMT98431391.2,bus2=BMT98433120.2,Phases=1,LineCode=tieSwitch1,Length=0.001,Units=km,switch=T !numEQ 117753
new line.CTR36191 bus1=BMT98433890.1,bus2=BMT98434534.1,Phases=1,LineCode=tieSwitch1,Length=0.001,Units=km,switch=T !numEQ 164246
new line.CTR436248 bus1=BMT168058273.1.2.3,bus2=BMT98423803.1.2.3,Phases=3,LineCode=tieSwitch,Length=0.001,Units=km,switch=T !numEQ 53297
new line.CTR475819 bus1=BMT171261759.1.2.3,bus2=BMT172348445.1.2.3,Phases=3,LineCode=tieSwitch,Length=0.001,Units=km,switch=T !numEQ 78932
new line.CTR528137 bus1=BMT98439742.3,bus2=BMT98440624.3,Phases=1,LineCode=tieSwitch1,Length=0.001,Units=km,switch=T !numEQ 83118
new line.CTR579741 bus1=BMT98431384.2,bus2=BMT149258232.2,Phases=1,LineCode=tieSwitch1,Length=0.001,Units=km,switch=T !numEQ 80056
new line.CTR641194 bus1=BMT98439980.3,bus2=BMT98440267.3,Phases=1,LineCode=tieSwitch1,Length=0.001,Units=km,switch=T !numEQ 113500
new line.CTR697495 bus1=BMT98441289.1,bus2=BMT98441317.1,Phases=1,LineCode=tieSwitch1,Length=0.001,Units=km,switch=T !numEQ 213079
new line.CTR698258 bus1=BMT98425833.1,bus2=BMT98438027.1,Phases=1,LineCode=tieSwitch1,Length=0.001,Units=km,switch=T !numEQ 199191
new line.CTR701170 bus1=BMT98426372.1,bus2=BMT98431209.1,Phases=1,LineCode=tieSwitch1,Length=0.001,Units=km,switch=T !numEQ 216092
new line.CTR701541 bus1=BMT98440456.3,bus2=BMT104212579.3,Phases=1,LineCode=tieSwitch1,Length=0.001,Units=km,switch=T !numEQ 208883
new line.CTR70183 bus1=BMT98432847.1,bus2=BMT169392730.1,Phases=1,LineCode=tieSwitch1,Length=0.001,Units=km,switch=T !numEQ 131564
new line.CTR854564 bus1=BMT151488862.1.2.3,bus2=BMT152496938.1.2.3,Phases=3,LineCode=tieSwitch,Length=0.001,Units=km,switch=T !numEQ 374825
new line.CTR870628 bus1=BMT155854017.1.2.3,bus2=BMT159509720.1.2.3,Phases=3,LineCode=tieSwitch,Length=0.001,Units=km,switch=T !numEQ 244989
new line.CTR870726 bus1=BMT155894314.1,bus2=BMT156255672.1,Phases=1,LineCode=tieSwitch1,Length=0.001,Units=km,switch=T !numEQ 240187
new line.CTR886476 bus1=BMT161530256.1,bus2=BMT161534894.1,Phases=1,LineCode=tieSwitch1,Length=0.001,Units=km,switch=T !numEQ 250617
new line.CTR886911 bus1=BMT161686006.1,bus2=BMT161686576.1,Phases=1,LineCode=tieSwitch1,Length=0.001,Units=km,switch=T !numEQ 244925
new line.CTR903069 bus1=BMT167626064.1.2.3,bus2=BMT170645213.1.2.3,Phases=3,LineCode=tieSwitch,Length=0.001,Units=km,switch=T !numEQ 261900
new line.CTR916063 bus1=BMT172042724.1.2.3,bus2=BMT172042747.1.2.3,Phases=3,LineCode=tieSwitch,Length=0.001,Units=km,switch=T !numEQ 319061
new line.CTR916705 bus1=BMT172267161.2,bus2=BMT172267168.2,Phases=1,LineCode=tieSwitch1,Length=0.001,Units=km,switch=T !numEQ 322417
new line.CTRR22513 bus1=BMT98435745.3,bus2=BMT98435752.3,Phases=1,LineCode=tieSwitch1,Length=0.001,Units=km,switch=T !numEQ 206094
