CemigDFeeders/AMN06/AMN06Transformadores.dss
new transformer.1058437 Phases=1,Windings=3,Buses=[BMT98427919.2 BBT10573943.1.0 BBT10573943.0.2],Conns=[wye wye wye],kvs=[7.967 0.12 0.12],kvas=[5.000000000 5.000000000 5.000000000],Taps=[1,1.053000000,1.053000000],%loadloss=1.900000000,%noloadloss=0.600000000
new transformer.1058444 Phases=1,Windings=3,Buses=[BMT98427912.2 BBT10575224.1.0 BBT10575224.0.2],Conns=[wye wye wye],kvs=[7.967 0.12 0.12],kvas=[5.000000000 5.000000000 5.000000000],Taps=[1,1.053000000,1.053000000],%loadloss=1.900000000,%noloadloss=0.600000000
new transformer.1058451 Phases=1,Windings=3,Buses=[BMT98427926.2 BBT10575735.1.0 BBT10575735.0.2],Conns=[wye wye wye],kvs=[7.967 0.12 0.12],kvas=[5.000000000 5.000000000 5.000000000],Taps=[1,1.053000000,1.053000000],%loadloss=1.900000000,%noloadloss=0.600000000
new transformer.1058549 Phases=1,Windings=3,Buses=[BMT98427555.2 BBT10594110.1.0 BBT10594110.0.2],Conns=[wye wye wye],kvs=[7.967 0.12 0.12],kvas=[10.000000000 10.000000000 10.000000000],Taps=[1,1.053000000,1.053000000],%loadloss=1.800000000,%noloadloss=0.450000000
new transformer.1058577 Phases=1,Windings=3,Buses=[BMT98427590.2 BBT10597127.1.0 BBT10597127.0.2],Conns=[wye wye wye],kvs=[7.967 0.12 0.12],kvas=[5.000000000 5.000000000 5.000000000],Taps=[1,1.053000000,1.053000000],%loadloss=1.900000000,%noloadloss=0.600000000
new transformer.1058584 Phases=1,Windings=3,Buses=[BMT98427702.2 BBT10599514.1.0 BBT10599514.0.2],Conns=[wye wye wye],kvs=[7.967 0.12 0.12],kvas=[5.000000000 5.000000000 5.000000000],Taps=[1,1.053000000,1.053000000],%loadloss=1.900000000,%noloadloss=0.600000000
new transformer.1058591 Phases=1,Windings=3,Buses=[BMT98427569.2 BBT10600893.1.0 BBT10600893.0.2],Conns=[wye wye wye],kvs=[7.967 0.12 0.12],kvas=[5.000000000 5.000000000 5.000000000],Taps=[1,1.053000000,1.053000000],%loadloss=1.900000000,%noloadloss=0.600000000
new transformer.1058605 Phases=1,Windings=3,Buses=[BMT98427583.2 BBT10603546.1.0 BBT10603546.0.2],Conns=[wye wye wye],kvs=[7.967 0.12 0.12],kvas=[5.000000000 5.000000000 5.000000000],Taps=[1,1.053000000,1.053000000],%loadloss=1.900000000,%noloadloss=0.600000000
new transformer.1058640 Phases=1,Windings=3,Buses=[BMT98427828.2 BBT10608075.1.0 BBT10608075.0.2],Conns=[wye wye wye],kvs=[7.967 0.12 0.12],kvas=[5.000000000 5.000000000 5.000000000],Taps=[1,1.053000000,1.053000000],%loadloss=1.900000000,%noloadloss=0.600000000
new transformer.1058647 Phases=1,Windings=3,Buses=[BMT98427863.2 BBT10609062.1.0 BBT10609062.0.2],Conns=[wye wye wye],kvs=[7.967 0.12 0.12],kvas=[5.000000000 5.000000000 5.000000000],Taps=[1,1.053000000,1.053000000],%loadloss=1.900000000,%noloadloss=0.600000000
new transformer.1058654 Phases=1,Windings=3,Buses=[BMT98427625.2 BBT10616384.1.0 BBT10616384.0.2],Conns=[wye wye wye],kvs=[7.967 0.12 0.12],kvas=[5.000000000 5.000000000 5.000000000],Taps=[1,1.053000000,1.053000000],%loadloss=1.900000000,%noloadloss=0.600000000
new transformer.1058661 Phases=1,Windings=3,Buses=[BMT98427639.2 BBT10618666.1.0 BBT10618666.0.2],Conns=[wye wye wye],kvs=[7.967 0.12 0.12],kvas=[5.000000000 5.000000000 5.000000000],Taps=[1,1.053000000,1.053000000],%loadloss=1.900000000,%noloadloss=0.600000000
new transformer.1058668 Phases=1,Windings=3,Buses=[BMT98427660.2 BBT10621130.1.0 BBT10621130.0.2],Conns=[wye wye wye],kvs=[7.967 0.12 0.12],kvas=[5.000000000 5.000000000 5.000000000],Taps=[1,1.053000000,1.053000000],%loadloss=1.900000000,%noloadloss=0.600000000
new transformer.1058689 Phases=1,Windings=3,Buses=[BMT98427667.2 BBT10628844.1.0 BBT10628844.0.2],Conns=[wye wye wye],kvs=[7.967 0.12 0.12],kvas=[5.000000000 5.000000000 5.000000000],Taps=[1,1.053000000,1.053000000],%loadloss=1.900000000,%noloadloss=0.600000000
new transformer.1058745 Phases=1,Windings=3,Buses=[BMT98427716.2 BBT10645742.1.0 BBT10645742.0.2],Conns=[wye wye wye],kvs=[7.967 0.12 0.12],kvas=[5.000000000 5.000000000 5.000000000],Taps=[1,1.053000000,1.053000000],%loadloss=1.900000000,%noloadloss=0.600000000
new transformer.1058752 Phases=1,Windings=3,Buses=[BMT98427737.2 BBT10651153.1.0 BBT10651153.0.2],Conns=[wye wye wye],kvs=[7.967 0.12 0.12],kvas=[5.000000000 5.000000000 5.000000000],Taps=[1,1.053000000,1.053000000],%loadloss=1.900000000,%noloadloss=0.600000000
new transformer.1058759 Phases=1,Windings=3,Buses=[BMT98427751.2 BBT10653057.1.0 BBT10653057.0.2],Conns=[wye wye wye],kvs=[7.967 0.12 0.12],kvas=[10.000000000 10.000000000 10.000000000],Taps=[1,1.053000000,1.053000000],%loadloss=1.800000000,%noloadloss=0.450000000
new transformer.1058766 Phases=1,Windings=3,Buses=[BMT98427856.2 BBT10654702.1.0 BBT10654702.0.2],Conns=[wye wye wye],kvs=[7.967 0.12 0.12],kvas=[5.000000000 5.000000000 5.000000000],Taps=[1,1.053000000,1.053000000],%loadloss=1.900000000,%noloadloss=0.600000000
new transformer.1058780 Phases=1,Windings=3,Buses=[BMT98427758.2 BBT10659756.1.0 BBT10659756.0.2],Conns=[wye wye wye],kvs=[7.967 0.12 0.12],kvas=[5.000000000 5.000000000 5.000000000],Taps=[1,1.053000000,1.053000000],%loadloss=1.900000000,%noloadloss=0.600000000
new transformer.1058794 Phases=1,Windings=3,Buses=[BMT98427772.2 BBT10661674.1.0 BBT10661674.0.2],Conns=[wye wye wye],kvs=[7.967 0.12 0.12],kvas=[5.000000000 5.000000000 5.000000000],Taps=[1,1.053000000,1.053000000],%loadloss=1.900000000,%noloadloss=0.600000000
new transformer.1058808 Phases=1,Windings=3,Buses=[BMT98427786.2 BBT10665356.1.0 BBT10665356.0.2],Conns=[wye wye wye],kvs=[7.967 0.12 0.12],kvas=[5.000000000 5.000000000 5.000000000],Taps=[1,1.053000000,1.053000000],%loadloss=1.900000000,%noloadloss=0.600000000
new transformer.1058815 Phases=1,Windings=3,Buses=[BMT98427800.2 BBT10666336.1.0 BBT10666336.0.2],Conns=[wye wye wye],kvs=[7.967 0.12 0.12],kvas=[5.000000000 5.000000000 5.000000000],Taps=[1,1.053000000,1.053000000],%loadloss=1.900000000,%noloadloss=0.600000000
new transformer.1058829 Phases=1,Windings=3,Buses=[BMT98427814.2 BBT10667981.1.0 BBT10667981.0.2],Conns=[wye wye wye],kvs=[7.967 0.12 0.12],kvas=[5.000000000 5.000000000 5.000000000],Taps=[1,1.053000000,1.053000000],%loadloss=1.900000000,%noloadloss=0.600000000
new transformer.1058843 Phases=1,Windings=3,Buses=[BMT98427835.2 BBT10683703.1.0 BBT10683703.0.2],Conns=[wye wye wye],kvs=[7.967 0.12 0.12],kvas=[5.000000000 5.000000000 5.000000000],Taps=[1,1.053000000,1.053000000],%loadloss=1.900000000,%noloadloss=0.600000000
new transformer.1040279 Phases=1,Windings=3,Buses=[BMT98439483.2 BBT6846142.1.0 BBT6846142.0.2],Conns=[wye wye wye],kvs=[7.967 0.12 0.12],kvas=[10.000000000 10.000000000 10.000000000],Taps=[1,1.000000000,1.000000000],%loadloss=1.800000000,%noloadloss=0.450000000
new transformer.1054258 Phases=1,Windings=3,Buses=[BMT98436291.3 BBT8121444.1.0 BBT8121444.0.2],Conns=[wye wye wye],kvs=[7.967 0.12 0.12],kvas=[5.000000000 5.000000000 5.000000000],Taps=[1,1.000000000,1.000000000],%loadloss=1.900000000,%noloadloss=0.600000000
new transformer.1054335 Phases=1,Windings=3,Buses=[BMT98436375.3 BBT8134093.1.0 BBT8134093.0.2],Conns=[wye wye wye],kvs=[7.967 0.12 0.12],kvas=[5.000000000 5.000000000 5.000000000],Taps=[1,1.000000000,1.000000000],%loadloss=1.900000000,%noloadloss=0.600000000
new transformer.1054342 Phases=1,Windings=3,Buses=[BMT98436382.3 BBT8135367.1.0 BBT8135367.0.2],Conns=[wye wye wye],kvs=[7.967 0.12 0.12],kvas=[5.000000000 5.000000000 5.000000000],Taps=[1,1.000000000,1.000000000],%loadloss=1.900000000,%noloadloss=0.600000000
new transformer.1054356 Phases=1,Windings=3,Buses=[BMT98436319.3 BBT8139868.1.0 BBT8139868.0.2],Conns=[wye wye wye],kvs=[7.967 0.12 0.12],kvas=[5.000000000 5.000000000 5.000000000],Taps=[1,1.000000000,1.000000000],%loadloss=1.900000000,%noloadloss=0.600000000
new transformer.1054363 Phases=1,Windings=3,Buses=[BMT98436326.3 BBT8143466.1.0 BBT8143466.0.2],Conns=[wye wye wye],kvs=[7.967 0.12 0.12],kvas=[5.000000000 5.000000000 5.000000000],Taps=[1,1.000000000,1.000000000],%loadloss=1.900000000,%noloadloss=0.600000000
new transformer.1054384 Phases=1,Windings=3,Buses=[BMT98436354.3 BBT8156311.1.0 BBT8156311.0.2],Conns=[wye wye wye],kvs=[7.967 0.12 0.12],kvas=[5.000000000 5.000000000 5.000000000],Taps=[1,1.000000000,1.000000000],%loadloss=1.900000000,%noloadloss=0.600000000
new transformer.1054391 Phases=1,Windings=3,Buses=[BMT98436347.3 BBT8156773.1.0 BBT8156773.0.2],Conns=[wye wye wye],kvs=[7.967 0.12 0.12],kvas=[15.000000000 15.000000000 15.000000000],Taps=[1,1.000000000,1.000000000],%loadloss=1.600000000,%noloadloss=0.400000000
new transformer.1054412 Phases=1,Windings=3,Buses=[BMT98436417.3 BBT8171235.1.0 BBT8171235.0.2],Conns=[wye wye wye],kvs=[7.967 0.12 0.12],kvas=[5.000000000 5.000000000 5.000000000],Taps=[1,1.000000000,1.000000000],%loadloss=1.900000000,%noloadloss=0.600000000
new transformer.1054419 Phases=1,Windings=3,Buses=[BMT98436424.3 BBT8173853.1.0 BBT8173853.0.2],Conns=[wye wye wye],kvs=[7.967 0.12 0.12],kvas=[5.000000000 5.000000000 5.000000000],Taps=[1,1.000000000,1.000000000],%loadloss=1.900000000,%noloadloss=0.600000000
new transformer.1070393 Phases=1,Windings=3,Buses=[BMT98431328.3 BBT15337009.1.0 BBT15337009.0.2],Conns=[wye wye wye],kvs=[7.967 0.12 0.12],kvas=[15.000000000 15.000000000 15.000000000],Taps=[1,1.000000000,1.000000000],%loadloss=1.600000000,%noloadloss=0.400000000
new transformer.1100017 Phases=1,Windings=3,Buses=[BMT154144400.1 BBT23391048.1.0 BBT23391048.0.2],Conns=[wye wye wye],kvs=[7.967 0.12 0.12],kvas=[5.000000000 5.000000000 5.000000000],Taps=[1,1.042000000,1.042000000],%loadloss=1.900000000,%noloadloss=0.600000000
new transformer.1100024 Phases=1,Windings=3,Buses=[BMT154144401.1 BBT23391118.1.0 BBT23391118.0.2],Conns=[wye wye wye],kvs=[7.967 0.12 0.12],kvas=[5.000000000 5.000000000 5.000000000],Taps=[1,1.042000000,1.042000000],%loadloss=1.900000000,%noloadloss=0.600000000
new transformer.1100031 Phases=1,Windings=3,Buses=[BMT168731453.2 BBT23391314.1.0 BBT23391314.0.2],Conns=[wye wye wye],kvs=[7.967 0.12 0.12],kvas=[5.000000000 5.000000000 5.000000000],Taps=[1,1.031000000,1.031000000],%loadloss=1.900000000,%noloadloss=0.600000000
new transformer.1100038 Phases=1,Windings=3,Buses=[BMT168731452.2 BBT23391489.1.0 BBT23391489.0.2],Conns=[wye wye wye],kvs=[7.967 0.12 0.12],kvas=[5.000000000 5.000000000 5.000000000],Taps=[1,1.031000000,1.031000000],%loadloss=1.900000000,%noloadloss=0.600000000
new transformer.1100045 Phases=1,Windings=3,Buses=[BMT168731417.2 BBT23391692.1.0 BBT23391692.0.2],Conns=[wye wye wye],kvs=[7.967 0.12 0.12],kvas=[5.000000000 5.000000000 5.000000000],Taps=[1,1.031000000,1.031000000],%loadloss=1.900000000,%noloadloss=0.600000000
new transformer.1100052 Phases=1,Windings=3,Buses=[BMT168752507.1 BBT23392896.1.0 BBT23392896.0.2],Conns=[wye wye wye],kvs=[7.967 0.12 0.12],kvas=[5.000000000 5.000000000 5.000000000],Taps=[1,1.042000000,1.042000000],%loadloss=1.900000000,%noloadloss=0.600000000
new transformer.1100059 Phases=1,Windings=3,Buses=[BMT168752509.3 BBT23393260.1.0 BBT23393260.0.2],Conns=[wye wye wye],kvs=[7.967 0.12 0.12],kvas=[5.000000000 5.000000000 5.000000000],Taps=[1,1.010000000,1.010000000],%loadloss=1.900000000,%noloadloss=0.600000000
new transformer.1100066 Phases=1,Windings=3,Buses=[BMT168752511.2 BBT23393827.1.0 BBT23393827.0.2],Conns=[wye wye wye],kvs=[7.967 0.12 0.12],kvas=[5.000000000 5.000000000 5.000000000],Taps=[1,1.031000000,1.031000000],%loadloss=1.900000000,%noloadloss=0.600000000
new transformer.1100080 Phases=1,Windings=3,Buses=[BMT168752512.1 BBT23394086.1.0 BBT23394086.0.2],Conns=[wye wye wye],kvs=[7.967 0.12 0.12],kvas=[5.000000000 5.000000000 5.000000000],Taps=[1,1.042000000,1.042000000],%loadloss=1.900000000,%noloadloss=0.600000000
new transformer.1100367 Phases=1,Windings=3,Buses=[BMT98430572.2 BBT23433433.1.0 BBT23433433.0.2],Conns=[wye wye wye],kvs=[7.967 0.12 0.12],kvas=[5.000000000 5.000000000 5.000000000],Taps=[1,1.042000000,1.042000000],%loadloss=1.900000000,%noloadloss=0.600000000
new transformer.1100374 Phases=1,Windings=3,Buses=[BMT98430586.2 BBT23433503.1.0 BBT23433503.0.2],Conns=[wye wye wye],kvs=[7.967 0.12 0.12],kvas=[5.000000000 5.000000000 5.000000000],Taps=[1,1.042000000,1.042000000],%loadloss=1.900000000,%noloadloss=0.600000000
new transformer.1100381 Phases=1,Windings=3,Buses=[BMT98430593.2 BBT23433615.1.0 BBT23433615.0.2],Conns=[wye wye wye],kvs=[7.967 0.12 0.12],kvas=[5.000000000 5.000000000 5.000000000],Taps=[1,1.042000000,1.042000000],%loadloss=1.900000000,%noloadloss=0.600000000
new transformer.1043534 Phases=1,Windings=3,Buses=[BMT98429207.2 BBT7214216.1.0 BBT7214216.0.2],Conns=[wye wye wye],kvs=[7.967 0.12 0.12],kvas=[5.000000000 5.000000000 5.000000000],Taps=[1,1.042000000,1.042000000],%loadloss=1.900000000,%noloadloss=0.600000000
new transformer.1043541 Phases=1,Windings=3,Buses=[BMT98427975.2 BBT7214454.1.0 BBT7214454.0.2],Conns=[wye wye wye],kvs=[7.967 0.12 0.12],kvas=[5.000000000 5.000000000 5.000000000],Taps=[1,1.053000000,1.053000000],%loadloss=1.900000000,%noloadloss=0.600000000
new transformer.1043548 Phases=1,Windings=3,Buses=[BMT98427982.2 BBT7214468.1.0 BBT7214468.0.2],Conns=[wye wye wye],kvs=[7.967 0.12 0.12],kvas=[5.000000000 5.000000000 5.000000000],Taps=[1,1.053000000,1.053000000],%loadloss=1.900000000,%noloadloss=0.600000000
new transformer.1043562 Phases=1,Windings=3,Buses=[BMT98431139.3 BBT7214692.1.0 BBT7214692.0.2],Conns=[wye wye wye],kvs=[7.967 0.12 0.12],kvas=[5.000000000 5.000000000 5.000000000],Taps=[1,1.002000000,1.002000000],%loadloss=1.900000000,%noloadloss=0.600000000
new transformer.1043576 Phases=1,Windings=3,Buses=[BMT98431132.3 BBT7214755.1.0 BBT7214755.0.2],Conns=[wye wye wye],kvs=[7.967 0.12 0.12],kvas=[5.000000000 5.000000000 5.000000000],Taps=[1,1.002000000,1.002000000],%loadloss=1.900000000,%noloadloss=0.600000000
new transformer.1043583 Phases=1,Windings=3,Buses=[BMT98428080.2 BBT7215238.1.0 BBT7215238.0.2],Conns=[wye wye wye],kvs=[7.967 0.12 0.12],kvas=[5.000000000 5.000000000 5.000000000],Taps=[1,1.053000000,1.053000000],%loadloss=1.900000000,%noloadloss=0.600000000
new transformer.1043590 Phases=1,Windings=3,Buses=[BMT98428108.2 BBT7215287.1.0 BBT7215287.0.2],Conns=[wye wye wye],kvs=[7.967 0.12 0.12],kvas=[10.000000000 10.000000000 10.000000000],Taps=[1,1.053000000,1.053000000],%loadloss=1.800000000,%noloadloss=0.450000000
new transformer.1043597 Phases=1,Windings=3,Buses=[BMT98428101.2 BBT7215308.1.0 BBT7215308.0.2],Conns=[wye wye wye],kvs=[7.967 0.12 0.12],kvas=[5.000000000 5.000000000 5.000000000],Taps=[1,1.053000000,1.053000000],%loadloss=1.900000000,%noloadloss=0.600000000
new transformer.1043604 Phases=1,Windings=3,Buses=[BMT98428073.2 BBT7215329.1.0 BBT7215329.0.2],Conns=[wye wye wye],kvs=[7.967 0.12 0.12],kvas=[5.000000000 5.000000000 5.000000000],Taps=[1,1.053000000,1.053000000],%loadloss=1.900000000,%noloadloss=0.600000000
new transformer.1043611 Phases=1,Windings=3,Buses=[BMT98429529.2 BBT7215595.1.0 BBT7215595.0.2],Conns=[wye wye wye],kvs=[7.967 0.12 0.12],kvas=[5.000000000 5.000000000 5.000000000],Taps=[1,1.042000000,1.042000000],%loadloss=1.900000000,%noloadloss=0.600000000
new transformer.1043618 Phases=1,Windings=3,Buses=[BMT98429543.2 BBT7215700.1.0 BBT7215700.0.2],Conns=[wye wye wye],kvs=[7.967 0.12 0.12],kvas=[5.000000000 5.000000000 5.000000000],Taps=[1,1.042000000,1.042000000],%loadloss=1.900000000,%noloadloss=0.600000000
new transformer.1043625 Phases=1,Windings=3,Buses=[BMT98429536.2 BBT7215714.1.0 BBT7215714.0.2],Conns=[wye wye wye],kvs=[7.967 0.12 0.12],kvas=[5.000000000 5.000000000 5.000000000],Taps=[1,1.042000000,1.042000000],%loadloss=1.900000000,%noloadloss=0.600000000
new transformer.1088656 Phases=1,Windings=3,Buses=[BMT98431342.3 BBT20760518.1.0 BBT20760518.0.2],Conns=[wye wye wye],kvs=[7.967 0.12 0.12],kvas=[5.000000000 5.000000000 5.000000000],Taps=[1,1.000000000,1.000000000],%loadloss=1.900000000,%noloadloss=0.600000000
new transformer.1088663 Phases=1,Windings=3,Buses=[BMT98431349.3 BBT20761036.1.0 BBT20761036.0.2],Conns=[wye wye wye],kvs=[7.967 0.12 0.12],kvas=[5.000000000 5.000000000 5.000000000],Taps=[1,1.000000000,1.000000000],%loadloss=1.900000000,%noloadloss=0.600000000
new transformer.1090161 Phases=1,Windings=3,Buses=[BMT152390027.1 BBT21042835.1.0 BBT21042835.0.2],Conns=[wye wye wye],kvs=[7.967 0.12 0.12],kvas=[5.000000000 5.000000000 5.000000000],Taps=[1,1.020000000,1.020000000],%loadloss=1.900000000,%noloadloss=0.600000000
new transformer.1090175 Phases=1,Windings=3,Buses=[BMT152390029.1 BBT21044158.1.0 BBT21044158.0.2],Conns=[wye wye wye],kvs=[7.967 0.12 0.12],kvas=[5.000000000 5.000000000 5.000000000],Taps=[1,1.020000000,1.020000000],%loadloss=1.900000000,%noloadloss=0.600000000
new transformer.1090203 Phases=1,Windings=3,Buses=[BMT152390031.1 BBT21045348.1.0 BBT21045348.0.2],Conns=[wye wye wye],kvs=[7.967 0.12 0.12],kvas=[5.000000000 5.000000000 5.000000000],Taps=[1,1.020000000,1.020000000],%loadloss=1.900000000,%noloadloss=0.600000000
new transformer.1103832 Phases=1,Windings=3,Buses=[BMT149383141.2 BBT24088031.1.0 BBT24088031.0.2],Conns=[wye wye wye],kvs=[7.967 0.12 0.12],kvas=[5.000000000 5.000000000 5.000000000],Taps=[1,1.042000000,1.042000000],%loadloss=1.900000000,%noloadloss=0.600000000
new transformer.1103839 Phases=1,Windings=3,Buses=[BMT149383142.2 BBT24088143.1.0 BBT24088143.0.2],Conns=[wye wye wye],kvs=[7.967 0.12 0.12],kvas=[5.000000000 5.000000000 5.000000000],Taps=[1,1.042000000,1.042000000],%loadloss=1.900000000,%noloadloss=0.600000000
new transformer.1104070 Phases=1,Windings=3,Buses=[BMT160789844.2 BBT24146684.1.0 BBT24146684.0.2],Conns=[wye wye wye],kvs=[7.967 0.12 0.12],kvas=[5.000000000 5.000000000 5.000000000],Taps=[1,1.042000000,1.042000000],%loadloss=1.900000000,%noloadloss=0.600000000
new transformer.1104203 Phases=1,Windings=3,Buses=[BMT98430712.2 BBT24162882.1.0 BBT24162882.0.2],Conns=[wye wye wye],kvs=[7.967 0.12 0.12],kvas=[5.000000000 5.000000000 5.000000000],Taps=[1,1.042000000,1.042000000],%loadloss=1.900000000,%noloadloss=0.600000000
new transformer.1104210 Phases=1,Windings=3,Buses=[BMT98430719.2 BBT24162931.1.0 BBT24162931.0.2],Conns=[wye wye wye],kvs=[7.967 0.12 0.12],kvas=[5.000000000 5.000000000 5.000000000],Taps=[1,1.042000000,1.042000000],%loadloss=1.900000000,%noloadloss=0.600000000
new transformer.1104308 Phases=1,Windings=3,Buses=[BMT168731418.2 BBT24196860.1.0 BBT24196860.0.2],Conns=[wye wye wye],kvs=[7.967 0.12 0.12],kvas=[5.000000000 5.000000000 5.000000000],Taps=[1,1.031000000,1.031000000],%loadloss=1.900000000,%noloadloss=0.600000000
new transformer.1117636 Phases=1,Windings=3,Buses=[BMT98433764.2 BBT26777662.1.0 BBT26777662.0.2],Conns=[wye wye wye],kvs=[7.967 0.12 0.12],kvas=[5.000000000 5.000000000 5.000000000],Taps=[1,1.000000000,1.000000000],%loadloss=1.900000000,%noloadloss=0.600000000
new transformer.1132791 Phases=1,Windings=3,Buses=[BMT160789856.2 BBT29945134.1.0 BBT29945134.0.2],Conns=[wye wye wye],kvs=[7.967 0.12 0.12],kvas=[5.000000000 5.000000000 5.000000000],Taps=[1,1.042000000,1.042000000],%loadloss=1.900000000,%noloadloss=0.600000000
new transformer.1046943 Phases=1,Windings=3,Buses=[BMT98433239.2 BBT7372311.1.0 BBT7372311.0.2],Conns=[wye wye wye],kvs=[7.967 0.12 0.12],kvas=[10.000000000 10.000000000 10.000000000],Taps=[1,1.020000000,1.020000000],%loadloss=1.800000000,%noloadloss=0.450000000
new transformer.1061216 Phases=3,Windings=2,Buses=[BMT153290412.1.2.3 BBT11684619.1.2.3.0],Conns=[delta wye],kvs=[13.8 0.22],kvas=[45.000000000 45.000000000],Taps=[1,1.000000000],%loadloss=1.522000000,%noloadloss=0.377777000
new transformer.1074194 Phases=1,Windings=3,Buses=[BMT164150248.1 BBT16479563.1.0 BBT16479563.0.2],Conns=[wye wye wye],kvs=[7.967 0.12 0.12],kvas=[35.000000000 35.000000000 35.000000000],Taps=[1,1.000000000,1.000000000],%loadloss=1.293000000,%noloadloss=0.342857000
new transformer.1074425 Phases=1,Windings=3,Buses=[BMT98431188.1 BBT16509271.1.0 BBT16509271.0.2],Conns=[wye wye wye],kvs=[7.967 0.12 0.12],kvas=[5.000000000 5.000000000 5.000000000],Taps=[1,1.031000000,1.031000000],%loadloss=1.900000000,%noloadloss=0.600000000
new transformer.1090217 Phases=1,Windings=3,Buses=[BMT152390030.1 BBT21046258.1.0 BBT21046258.0.2],Conns=[wye wye wye],kvs=[7.967 0.12 0.12],kvas=[5.000000000 5.000000000 5.000000000],Taps=[1,1.020000000,1.020000000],%loadloss=1.900000000,%noloadloss=0.600000000
new transformer.1090826 Phases=1,Windings=3,Buses=[BMT98432434.1 BBT21143481.1.0 BBT21143481.0.2],Conns=[wye wye wye],kvs=[7.967 0.12 0.12],kvas=[5.000000000 5.000000000 5.000000000],Taps=[1,1.020000000,1.020000000],%loadloss=1.900000000,%noloadloss=0.600000000
new transformer.1105043 Phases=1,Windings=3,Buses=[BMT154145587.1 BBT24326542.1.0 BBT24326542.0.2],Conns=[wye wye wye],kvs=[7.967 0.12 0.12],kvas=[5.000000000 5.000000000 5.000000000],Taps=[1,1.042000000,1.042000000],%loadloss=1.900000000,%noloadloss=0.600000000
new transformer.1105050 Phases=1,Windings=3,Buses=[BMT162768955.2 BBT24327046.1.0 BBT24327046.0.2],Conns=[wye wye wye],kvs=[7.967 0.12 0.12],kvas=[5.000000000 5.000000000 5.000000000],Taps=[1,1.042000000,1.042000000],%loadloss=1.900000000,%noloadloss=0.600000000
new transformer.1105442 Phases=1,Windings=3,Buses=[BMT165560796.2 BBT24435854.1.0 BBT24435854.0.2],Conns=[wye wye wye],kvs=[7.967 0.12 0.12],kvas=[5.000000000 5.000000000 5.000000000],Taps=[1,1.042000000,1.042000000],%loadloss=1.900000000,%noloadloss=0.600000000
new transformer.1106737 Phases=1,Windings=3,Buses=[BMT166165300.2 BBT24616062.1.0 BBT24616062.0.2],Conns=[wye wye wye],kvs=[7.967 0.12 0.12],kvas=[35.000000000 35.000000000 35.000000000],Taps=[1,1.000000000,1.000000000],%loadloss=1.293000000,%noloadloss=0.342857000
new transformer.1106758 Phases=1,Windings=3,Buses=[BMT166165296.2 BBT24617119.1.0 BBT24617119.0.2],Conns=[wye wye wye],kvs=[7.967 0.12 0.12],kvas=[25.000000000 25.000000000 25.000000000],Taps=[1,1.000000000,1.000000000],%loadloss=1.420000000,%noloadloss=0.320000000
new transformer.1120807 Phases=1,Windings=3,Buses=[BMT98440302.3 BBT27303782.1.0 BBT27303782.0.2],Conns=[wye wye wye],kvs=[7.967 0.12 0.12],kvas=[5.000000000 5.000000000 5.000000000],Taps=[1,1.000000000,1.000000000],%loadloss=1.900000000,%noloadloss=0.600000000
new transformer.1120933 Phases=1,Windings=3,Buses=[BMT98440561.3 BBT27326049.1.0 BBT27326049.0.2],Conns=[wye wye wye],kvs=[7.967 0.12 0.12],kvas=[5.000000000 5.000000000 5.000000000],Taps=[1,1.000000000,1.000000000],%loadloss=1.900000000,%noloadloss=0.600000000
new transformer.1121192 Phases=1,Windings=3,Buses=[BMT98430684.2 BBT27372984.1.0 BBT27372984.0.2],Conns=[wye wye wye],kvs=[7.967 0.12 0.12],kvas=[5.000000000 5.000000000 5.000000000],Taps=[1,1.042000000,1.042000000],%loadloss=1.900000000,%noloadloss=0.600000000
new transformer.1137943 Phases=1,Windings=3,Buses=[BMT98436823.3 BBT30999390.1.0 BBT30999390.0.2],Conns=[wye wye wye],kvs=[7.967 0.12 0.12],kvas=[5.000000000 5.000000000 5.000000000],Taps=[1,1.000000000,1.000000000],%loadloss=1.900000000,%noloadloss=0.600000000
new transformer.1138391 Phases=1,Windings=3,Buses=[BMT149896735.3 BBT31075053.1.0 BBT31075053.0.2],Conns=[wye wye wye],kvs=[7.967 0.12 0.12],kvas=[5.000000000 5.000000000 5.000000000],Taps=[1,1.000000000,1.000000000],%loadloss=1.900000000,%noloadloss=0.600000000
new transformer.1138412 Phases=1,Windings=3,Buses=[BMT149896737.3 BBT31076404.1.0 BBT31076404.0.2],Conns=[wye wye wye],kvs=[7.967 0.12 0.12],kvas=[5.000000000 5.000000000 5.000000000],Taps=[1,1.000000000,1.000000000],%loadloss=1.900000000,%noloadloss=0.600000000
new transformer.1138419 Phases=1,Windings=3,Buses=[BMT149896738.3 BBT31076656.1.0 BBT31076656.0.2],Conns=[wye wye wye],kvs=[7.967 0.12 0.12],kvas=[5.000000000 5.000000000 5.000000000],Taps=[1,1.000000000,1.000000000],%loadloss=1.900000000,%noloadloss=0.600000000
...