CemigDFeeders/AMN06/AMN06SegmentosBT.dss
new line.1036386 bus1=BBT439504.1.2.3.0,bus2=BBT149863296.1.2.3.0,Phases=3,Linecode=BT810_BT810_4_3_4,Length=0.032250000,Units=km
new line.1036428 bus1=BBT149863180.1.2.3.0,bus2=BBT439518.1.2.3.0,Phases=3,Linecode=BT810_BT810_4_3_4,Length=0.034000000,Units=km
new line.1036435 bus1=BBT149863180.1.2.3.0,bus2=BBT149863255.1.2.3.0,Phases=3,Linecode=BT810_BT810_4_3_4,Length=0.020250000,Units=km
new line.1036442 bus1=BBT439553.1.2.3.0,bus2=BBT149863180.1.2.3.0,Phases=3,Linecode=BT810_BT810_4_3_4,Length=0.025550000,Units=km
new line.1036477 bus1=BBT149863255.1.2.3.0,bus2=BBT439539.1.2.3.0,Phases=3,Linecode=BT810_BT810_4_3_4,Length=0.030020000,Units=km
new line.1036512 bus1=BBT439539.1.2.3.0,bus2=BBT151166781.1.2.3.0,Phases=3,Linecode=BT810_BT810_4_3_4,Length=0.026420000,Units=km
new line.1036540 bus1=BBT439546.1.2.3.0,bus2=BBT440855.1.2.3.0,Phases=3,Linecode=BT810_BT810_4_3_4,Length=0.037740000,Units=km
new line.1036547 bus1=BBT439560.1.2.3.0,bus2=BBT439553.1.2.3.0,Phases=3,Linecode=BT810_BT810_4_3_4,Length=0.023850000,Units=km
new line.1036582 bus1=BBT592398.1.2.3.0,bus2=BBT439560.1.2.3.0,Phases=3,Linecode=BT810_BT810_4_3_4,Length=0.030000000,Units=km
new line.1036603 bus1=BBT439945.1.2.3.0,bus2=BBT592398.1.2.3.0,Phases=3,Linecode=BT803_BT803_4_3_4,Length=0.027460000,Units=km
new line.1037464 bus1=BBT439882.1.2.3.0,bus2=BBT439973.1.2.3.0,Phases=3,Linecode=BT803_BT803_4_3_4,Length=0.026080000,Units=km
new line.1037485 bus1=BBT439889.1.2.3.0,bus2=BBT3846600.1.2.3.0,Phases=3,Linecode=BT803_BT803_4_3_4,Length=0.032760000,Units=km
new line.1037499 bus1=BBT439896.1.2.3.0,bus2=BBT439882.1.2.3.0,Phases=3,Linecode=BT803_BT803_4_3_4,Length=0.029160000,Units=km
new line.1037506 bus1=BBT439889.1.2.3.0,bus2=BBT439896.1.2.3.0,Phases=3,Linecode=BT803_BT803_4_3_4,Length=0.034990000,Units=km
new line.1037513 bus1=BBT439896.1.2.3.0,bus2=BBT592321.1.2.3.0,Phases=3,Linecode=BT803_BT803_4_3_4,Length=0.034670000,Units=km
new line.1037541 bus1=BBT439896.1.2.3.0,bus2=BBT149863620.1.2.3.0,Phases=3,Linecode=BT803_BT803_4_3_4,Length=0.024190000,Units=km
new line.1037555 bus1=BBT149863620.1.2.3.0,bus2=BBT439910.1.2.3.0,Phases=3,Linecode=BT803_BT803_4_3_4,Length=0.033620000,Units=km
new line.1037597 bus1=BBT439910.1.2.3.0,bus2=BBT439917.1.2.3.0,Phases=3,Linecode=BT803_BT803_4_3_4,Length=0.048300000,Units=km
new line.1037618 bus1=BBT592398.1.2.3.0,bus2=BBT149862927.1.2.3.0,Phases=3,Linecode=BT803_BT803_4_3_4,Length=0.027300000,Units=km
new line.1037667 bus1=BBT439938.1.2.3.0,bus2=BBT439924.1.2.3.0,Phases=3,Linecode=BT803_BT803_4_3_4,Length=0.029830000,Units=km
new line.1037688 bus1=BBT439945.1.2.3.0,bus2=BBT592419.1.2.3.0,Phases=3,Linecode=BT803_BT803_4_3_4,Length=0.028600000,Units=km
new line.1037709 bus1=BBT592419.1.2.3.0,bus2=BBT439938.1.2.3.0,Phases=3,Linecode=BT803_BT803_4_3_4,Length=0.029830000,Units=km
new line.1037744 bus1=BBT439959.1.2.3.0,bus2=BBT439504.1.2.3.0,Phases=3,Linecode=BT803_BT803_4_3_4,Length=0.031390000,Units=km
new line.1037779 bus1=BBT439966.1.2.3.0,bus2=BBT439959.1.2.3.0,Phases=3,Linecode=BT803_BT803_4_3_4,Length=0.039450000,Units=km
new line.1037786 bus1=BBT439980.1.2.3.0,bus2=BBT439966.1.2.3.0,Phases=3,Linecode=BT803_BT803_4_3_4,Length=0.034130000,Units=km
new line.1037793 bus1=BBT439966.1.2.3.0,bus2=BBT440001.1.2.3.0,Phases=3,Linecode=BT803_BT803_4_3_4,Length=0.034890000,Units=km
new line.1037807 bus1=BBT3846600.1.2.3.0,bus2=BBT4742628.1.2.3.0,Phases=3,Linecode=BT803_BT803_4_3_4,Length=0.027460000,Units=km
new line.1037835 bus1=BBT439966.1.2.3.0,bus2=BBT151162078.1.2.3.0,Phases=3,Linecode=BT803_BT803_4_3_4,Length=0.026420000,Units=km
new line.1037863 bus1=BBT439980.1.2.3.0,bus2=BBT439987.1.2.3.0,Phases=3,Linecode=BT803_BT803_4_3_4,Length=0.036360000,Units=km
new line.1037884 bus1=BBT439987.1.2.3.0,bus2=BBT439994.1.2.3.0,Phases=3,Linecode=BT803_BT803_4_3_4,Length=0.033290000,Units=km
new line.1037891 bus1=BBT439987.1.2.3.0,bus2=BBT7282249.1.2.3.0,Phases=3,Linecode=BT803_BT803_4_3_4,Length=0.035000000,Units=km
new line.1037912 bus1=BBT439994.1.2.3.0,bus2=BBT5242708.1.2.3.0,Phases=3,Linecode=BT803_BT803_4_3_4,Length=0.037740000,Units=km
new line.1039746 bus1=BBT6534467.1.2.0,bus2=BBT440582.1.2.0,Phases=2,Linecode=BT801_BT801_4_2_3,Length=0.043010000,Units=km
new line.1039753 bus1=BBT6534467.1.2.0,bus2=BBT440603.1.2.0,Phases=2,Linecode=BT801_BT801_4_2_3,Length=0.037010000,Units=km
new line.1039781 bus1=BBT6534467.1.2.3.0,bus2=BBT114456792.1.2.3.0,Phases=3,Linecode=BT810_BT810_4_3_4,Length=0.028850000,Units=km
new line.1039795 bus1=BBT114456792.1.2.3.0,bus2=BBT440610.1.2.3.0,Phases=3,Linecode=BT810_BT810_4_3_4,Length=0.029680000,Units=km
new line.1039823 bus1=BBT440603.1.2.0,bus2=BBT16472164.1.2.0,Phases=2,Linecode=BT106_BT106_7_2_1,Length=0.035810000,Units=km
new line.1039844 bus1=BBT440610.1.2.3.0,bus2=BBT440617.1.2.3.0,Phases=3,Linecode=BT810_BT810_4_3_4,Length=0.029680000,Units=km
new line.1039851 bus1=BBT440610.1.2.0,bus2=BBT440624.1.2.0,Phases=2,Linecode=BT808_BT808_4_2_3,Length=0.038600000,Units=km
...